data_image0
_chemical_formula_structural       Ti3C2F2
_chemical_formula_sum              "Ti3 C2 F2"
_cell_length_a       3.0695898871037586
_cell_length_b       3.0695898871037586
_cell_length_c       22.240680345988526
_cell_angle_alpha    90.0
_cell_angle_beta     90.0
_cell_angle_gamma    120.00000000000001

_space_group_name_H-M_alt    "P 1"
_space_group_IT_number       1

loop_
  _space_group_symop_operation_xyz
  'x, y, z'

loop_
  _atom_site_type_symbol
  _atom_site_label
  _atom_site_symmetry_multiplicity
  _atom_site_fract_x
  _atom_site_fract_y
  _atom_site_fract_z
  _atom_site_occupancy
  Ti  Ti1       1.0  0.0  0.0  0.4999999551102575  1.0000
  Ti  Ti2       1.0  0.6666666666666662  0.3333333333333329  0.6061491689685627  1.0000
  Ti  Ti3       1.0  0.6666666666666662  0.3333333333333329  0.3938509718885618  1.0000
  C   C1        1.0  0.3333333333333335  0.6666666666666659  0.5588026867903374  1.0000
  C   C2        1.0  0.3333333333333335  0.6666666666666659  0.44119719784481254  1.0000
  F   F1        1.0  1.4724333684153513e-18  3.819380753074543e-18  0.6629024118219505  1.0000
  F   F2        1.0  9.750376658291014e-19  1.7818960702123686e-18  0.33709748424322417  1.0000
